&NAMVER
   CBOX%ACTIVE=F,
   DATA_SOURCE='vfld',
   EDATE=20240630,
   ESTIMATE_QC_LIMIT=T,
   EXPNAME='MNWC2-ref','MNWC2-Bscale','MNWC2-Bs-mix1','MNWC-Bs-mix2',
   FCINT=03,
   FCLEN=00,01,02,03,04,05,06,07,08,09,10,11,12,
   FEXPNAME='MNWC2_ref','MNWC2_Bs_pure','MNWC2_Bscale','MNWC2_Bs_mix2',
   LDIFF=T,
   LFCVER=T,
   LPLOT_FREQ=F,
   LPLOT_SCAT=F,
   LPLOT_SEASONAL=F,
   LPLOT_STAT=F,
   LPLOT_VERT=F,
   LPOLY=F,
   LPREP_XML=F,
   LPRINT_SELECTION=T,
   LQUALITY_CONTROL=T,
   LRECONSTRUCT_PE=T,
   LSIGN_TEST=F,
   LSIGN_TEST_JOINT=F,
   LSTAT_GEN=F,
   LTIMESERIE_STAT=F,
   LVERIFY=F,
   MAXSTN=20000,
   MAX_CB=-1.,
   MODPATH='/nobackup/forsk/sm_ovigne/mc-monitor-new/../vdata_mnwc/','/nobackup/forsk/sm_ovigne/mc-monitor-new/../vdata_mnwc/','/nobackup/forsk/sm_ovigne/mc-monitor-new/../vdata_mnwc/','/nobackup/forsk/sm_ovigne/mc-monitor-new/../vdata_mnwc/',
   NEXP=4,
   OBINT=01,
   OBSPATH='/nobackup/forsk/sm_ovigne/mc-monitor-new/../vdata_mnwc/',
   OBSTIME(4,1:8)=0,3,6,9,12,15,18,21,
   OBSTIME(5,1:8)=0,3,6,9,12,15,18,21,
   OBSTIME(6,1:4)=0,6,12,18,
   OBSTIME(7,1:4)=0,6,12,18,
   OUTPUT_MODE=2,
   OUTPUT_TYPE=2,
   PERIOD_FREQ=1,
   PERIOD_TYPE=1,
   PLOT_BIAS_MAP=F,
   PLOT_MABE_MAP=F,
   PLOT_PREFIX='V','v','ps','PS','L','l','m','M','f','s','x','Y','sign','jsign',
   PLOT_RMSE_MAP=F,
   PLOT_STDV_MAP=F,
   PRINT_READ=0,
   QC_LIM_SCALE(1)=5,
   QC_LIM_SCALE(10)=5,
   QC_LIM_SCALE(2)=5,
   QC_LIM_SCALE(3)=5,
   QC_LIM_SCALE(4)=100,
   QC_LIM_SCALE(5)=100,
   QC_LIM_SCALE(6)=100,
   QC_LIM_SCALE(7)=100,
   QC_LIM_SCALE(8)=5,
   QC_LIM_SCALE(9)=5,
   SDATE=20240601,
   SETPROP(1)%ID='QQ',
   SETPROP(1)%TEXT='Q2m',
   SETPROP(10)%ID='LC',
   SETPROP(10)%LLIM=0,
   SETPROP(10)%TEXT='Low clouds',
   SETPROP(10)%UNIT='octas',
   SETPROP(2)%ID='NN',
   SETPROP(2)%TEXT='Cloud cover',
   SETPROP(3)%ID='N75',
   SETPROP(3)%LLIM=0,
   SETPROP(3)%TEXT='clouds <7500m',
   SETPROP(3)%UNIT='octas',
   SETPROP(4)%ACC=1,
   SETPROP(4)%ID='PE1',
   SETPROP(4)%LLIM=0.,
   SETPROP(4)%TEXT='1h Precipitation',
   SETPROP(4)%ULIM=500.,
   SETPROP(4)%UNIT='mm/1h',
   SETPROP(5)%ACC=3,
   SETPROP(5)%ID='PE3',
   SETPROP(5)%LLIM=0.,
   SETPROP(5)%TEXT='3h Precipitation',
   SETPROP(5)%ULIM=500.,
   SETPROP(5)%UNIT='mm/3h',
   SETPROP(6)%ACC=6,
   SETPROP(6)%ID='PE6',
   SETPROP(6)%LLIM=0.,
   SETPROP(6)%TEXT='6h Precipitation',
   SETPROP(6)%ULIM=500.,
   SETPROP(6)%UNIT='mm/6h',
   SETPROP(7)%ACC=12,
   SETPROP(7)%ID='PE12',
   SETPROP(7)%LLIM=0.,
   SETPROP(7)%TEXT='12h Precipitation',
   SETPROP(7)%ULIM=500.,
   SETPROP(7)%UNIT='mm/12h',
   SETPROP(8)%ID='VI',
   SETPROP(8)%TEXT='Visibility',
   SETPROP(9)%ID='CH',
   SETPROP(9)%LLIM=0,
   SETPROP(9)%TEXT='Cloud base',
   SETPROP(9)%UNIT='m',
   SHOW_OBS=F,
   STNLIST=0,
   STNLIST_PLOT=-1,
   USE_ANALYSIS=.TRUE.,.TRUE.,.TRUE.,.TRUE.,.TRUE.,
   VARLIST='QQ','NN','N75','PE1','PE3','PE6','PE12','VI','CH','LC',
 /
&NAMVER
   CBOX%ACTIVE=F,
   INI_HOURS=24*-1,
   LDIFF=T,
   LFCVER=T,
   LPLOT_FREQ=F,
   LPLOT_SCAT=F,
   LPLOT_SEASONAL=F,
   LPLOT_STAT=F,
   LPLOT_VERT=F,
   LPOLY=F,
   LPREP_XML=F,
   LPRINT_SELECTION=T,
   LSIGN_TEST=F,
   LSIGN_TEST_JOINT=F,
   LSTAT_GEN=F,
   LTIMESERIE_STAT=T,
   LVERIFY=T,
   PLOT_BIAS_MAP=F,
   PLOT_MABE_MAP=F,
   PLOT_RMSE_MAP=F,
   PLOT_STDV_MAP=F,
   SHOW_BIAS=T,
   SHOW_MABE=T,
   SHOW_OBS=F,
   SHOW_RMSE=F,
   SHOW_STDV=F,
   STNLIST=0,19999*0,
   TAG='ALL',
   TIMESERIE_WIND(1)=,
   TIMESERIE_WIND(10)=,
   TIMESERIE_WIND(2)=,
   TIMESERIE_WIND(3)=,
   TIMESERIE_WIND(4)=,
   TIMESERIE_WIND(5)=,
   TIMESERIE_WIND(6)=,
   TIMESERIE_WIND(7)=,
   TIMESERIE_WIND(8)=,
   TIMESERIE_WIND(9)=,
   USE_FCLEN=00,01,02,03,04,05,06,07,08,09,10,11,12,
 /
&NAMVER
   CBOX%ACTIVE=F,
   INI_HOURS=24*-1,
   LDIFF=T,
   LFCVER=F,
   LPLOT_FREQ=F,
   LPLOT_SCAT=F,
   LPLOT_SEASONAL=F,
   LPLOT_STAT=F,
   LPLOT_VERT=F,
   LPOLY=F,
   LPREP_XML=F,
   LPRINT_SELECTION=T,
   LSIGN_TEST=F,
   LSIGN_TEST_JOINT=F,
   LSTAT_GEN=T,
   LTIMESERIE_STAT=F,
   LVERIFY=T,
   MAP_BIAS_INTERVAL(1:7,1)=-1.,-0.3,-0.1,0.,0.1,0.3,1.,
   MAP_BIAS_INTERVAL(1:7,10)=-4.,-2.,-1.,0.,1.,2.,4.,
   MAP_BIAS_INTERVAL(1:7,2)=-6.,-3.,-1.,0.,1.,3.,6.,
   MAP_BIAS_INTERVAL(1:7,3)=-4.,-2.,-1.,0.,1.,2.,4.,
   MAP_BIAS_INTERVAL(1:7,4)=7*-1,
   MAP_BIAS_INTERVAL(1:7,5)=7*-1,
   MAP_BIAS_INTERVAL(1:7,6)=7*-1,
   MAP_BIAS_INTERVAL(1:7,7)=7*-1,
   MAP_BIAS_INTERVAL(1:7,8)=7*-1,
   MAP_BIAS_INTERVAL(1:7,9)=-1000.,-500.,-250.,0.,250.,500.,1000.,
   NTIMVER=24,
   PLOT_BIAS_MAP=T,
   PLOT_MABE_MAP=T,
   PLOT_RMSE_MAP=F,
   PLOT_STDV_MAP=F,
   SHOW_OBS=F,
   SHOW_TIMES=00,12,
   STNLIST=0,19999*0,
   TAG='ALL',
   USE_FCLEN=00,01,02,03,04,05,06,07,08,09,10,11,12,
 /
&NAMVER
   CBOX%ACTIVE=F,
   CONFINT=90.,
   INI_HOURS=24*-1,
   LDIFF=T,
   LFCVER=T,
   LPLOT_FREQ=F,
   LPLOT_SCAT=F,
   LPLOT_SEASONAL=F,
   LPLOT_STAT=T,
   LPLOT_VERT=F,
   LPOLY=F,
   LPREP_XML=F,
   LPRINT_SELECTION=T,
   LSIGN_TEST=T,
   LSIGN_TEST_JOINT=T,,
   LSTAT_GEN=T,
   LTIMESERIE_STAT=F,
   LVERIFY=T,
   PLOT_BIAS_MAP=F,
   PLOT_MABE_MAP=F,
   PLOT_RMSE_MAP=F,
   PLOT_STDV_MAP=F,
   SHOW_BIAS=T,
   SHOW_MABE=T,
   SHOW_OBS=F,
   SHOW_RMSE=F,
   SHOW_STDV=F,
   SHOW_VAR=T,
   SIGN_TIME_DIFF=-1,
   STATNAME='TABLE_LL_00000000_ALL.html',
   STNLIST=0,19999*0,
   TAG='ALL',
   USE_FCLEN=00,01,02,03,04,05,06,07,08,09,10,11,12,
 /
&NAMVER
   CBOX%ACTIVE=F,
   INI_HOURS=24*-1,
   LDIFF=T,
   LFCVER=F,
   LPLOT_FREQ=F,
   LPLOT_SCAT=F,
   LPLOT_SEASONAL=F,
   LPLOT_STAT=T,
   LPLOT_VERT=F,
   LPOLY=F,
   LPREP_XML=F,
   LPRINT_SELECTION=T,
   LSIGN_TEST=F,
   LSIGN_TEST_JOINT=F,
   LSTAT_GEN=T,
   LTIMESERIE_STAT=F,
   LVERIFY=T,
   NTIMVER=24,
   PLOT_BIAS_MAP=F,
   PLOT_MABE_MAP=F,
   PLOT_RMSE_MAP=F,
   PLOT_STDV_MAP=F,
   SHOW_OBS=T,
   SHOW_VAR=F,
   STATNAME='TABLE_HH_00000000_ALL.html',
   STNLIST=0,19999*0,
   TAG='ALL',
   USE_FCLEN=00,01,02,03,04,05,06,07,08,09,10,11,12,
 /
&NAMVER
   CBOX%ACTIVE=F,
   CONT_CLASS(1)=8,
   CONT_CLASS(2)=7,
   CONT_CLASS(3)=9,
   CONT_CLASS(4)=9,
   CONT_CLASS(5)=9,
   CONT_CLASS(6)=11,
   CONT_CLASS(7)=8,
   CONT_CLASS(8)=8,
   CONT_CLASS(9)=7,
   CONT_IND(1)=2,
   CONT_IND(2)=3,
   CONT_IND(3)=4,
   CONT_IND(4)=5,
   CONT_IND(5)=6,
   CONT_IND(6)=7,
   CONT_IND(7)=8,
   CONT_IND(8)=9,
   CONT_IND(9)=10,
   CONT_LIM(1:11,6)=0.1,0.2,0.5,1.0,2.0,5.0,10.0,20.0,35.0,50.0,70.0,
   CONT_LIM(1:7,2)=1.,2.,3.,4.,5.,6.,7.,
   CONT_LIM(1:7,9)=1.,2.,3.,4.,5.,6.,7.,
   CONT_LIM(1:8,1)=0.5,1.5,2.5,3.5,4.5,5.5,6.5,7.5,
   CONT_LIM(1:8,7)=200.,500.,1000.,3000.,5000.,10000.,20000.,40000.,
   CONT_LIM(1:8,8)=70.,150.,300.,600.,1000.,1500.,2500.,5000.,
   CONT_LIM(1:9,3)=0.1,0.2,0.3,0.5,1.0,2.0,5.0,10.0,20.0,
   CONT_LIM(1:9,4)=0.1,0.2,0.5,1.0,2.0,5.0,10.0,15.0,20.0,
   CONT_LIM(1:9,5)=0.1,0.2,0.5,1.0,2.0,5.0,10.0,20.0,35.0,
   CONT_PARAM=9,
   INI_HOURS=24*-1,
   LDIFF=T,
   LFCVER=T,
   LPLOT_FREQ=F,
   LPLOT_SCAT=T,
   LPLOT_SEASONAL=F,
   LPLOT_STAT=F,
   LPLOT_VERT=F,
   LPOLY=F,
   LPREP_XML=T,
   LPRINT_SELECTION=T,
   LSCAT_YAVE=F,
   LSIGN_TEST=F,
   LSIGN_TEST_JOINT=F,
   LSTAT_GEN=F,
   LTIMESERIE_STAT=F,
   LVERIFY=T,
   PLOT_BIAS_MAP=F,
   PLOT_MABE_MAP=F,
   PLOT_RMSE_MAP=F,
   PLOT_STDV_MAP=F,
   PRE_FCLA(:,10)=1.,2.,3.,4.,5.,6.,7.,
   PRE_FCLA(:,2)=0.5,1.5,2.5,3.5,4.5,5.5,6.5,7.5,
   PRE_FCLA(:,3)=1.,2.,3.,4.,5.,6.,7.,
   PRE_FCLA(:,4)=0.1,0.2,0.3,0.5,1.0,2.0,5.0,10.0,20.0,
   PRE_FCLA(:,5)=0.1,0.2,0.5,1.0,2.0,5.0,10.0,15.0,20.0,
   PRE_FCLA(:,6)=0.1,0.2,0.5,1.0,2.0,5.0,10.0,20.0,35.0,
   PRE_FCLA(:,7)=0.1,0.2,0.5,1.0,2.0,5.0,10.0,20.0,35.0,50.0,70.0,
   PRE_FCLA(:,8)=200.,500.,1000.,3000.,5000.,10000.,20000.,40000.,
   PRE_FCLA(:,9)=70.,150.,300.,600.,1000.,1500.,2500.,5000.,
   SHOW_OBS=F,
   STNLIST=0,19999*0,
   TAG='ALL',
   USE_FCLEN=00,01,02,03,04,05,06,07,08,09,10,11,12,
 /
&NAMVER
   CBOX%ACTIVE=F,
   INI_HOURS=24*-1,
   LDIFF=T,
   LFCVER=F,
   LPLOT_FREQ=F,
   LPLOT_SCAT=F,
   LPLOT_SEASONAL=F,
   LPLOT_STAT=T,
   LPLOT_VERT=F,
   LPOLY=T,
   LPREP_XML=F,
   LPRINT_SELECTION=T,
   LSIGN_TEST=F,
   LSIGN_TEST_JOINT=F,
   LSTAT_GEN=T,
   LTIMESERIE_STAT=F,
   LVERIFY=T,
   NTIMVER=24,
   PLOT_BIAS_MAP=F,
   PLOT_MABE_MAP=F,
   PLOT_RMSE_MAP=F,
   PLOT_STDV_MAP=F,
   POLYFILE='MetCoOp.poly',
   SHOW_OBS=T,
   SHOW_VAR=F,
   STATNAME='TABLE_HH_00000000_METCOOP.html',
   STNLIST=0,
   STNLIST_PLOT=-1,
   TAG='METCOOP',
   USE_FCLEN=00,01,02,03,04,05,06,07,08,09,10,11,12,
 /
&NAMVER
   CBOX%ACTIVE=F,
   CONT_CLASS(1)=8,
   CONT_CLASS(2)=7,
   CONT_CLASS(3)=9,
   CONT_CLASS(4)=9,
   CONT_CLASS(5)=9,
   CONT_CLASS(6)=11,
   CONT_CLASS(7)=8,
   CONT_CLASS(8)=8,
   CONT_CLASS(9)=7,
   CONT_IND(1)=2,
   CONT_IND(2)=3,
   CONT_IND(3)=4,
   CONT_IND(4)=5,
   CONT_IND(5)=6,
   CONT_IND(6)=7,
   CONT_IND(7)=8,
   CONT_IND(8)=9,
   CONT_IND(9)=10,
   CONT_LIM(1:11,6)=0.1,0.2,0.5,1.0,2.0,5.0,10.0,20.0,35.0,50.0,70.0,
   CONT_LIM(1:7,2)=1.,2.,3.,4.,5.,6.,7.,
   CONT_LIM(1:7,9)=1.,2.,3.,4.,5.,6.,7.,
   CONT_LIM(1:8,1)=0.5,1.5,2.5,3.5,4.5,5.5,6.5,7.5,
   CONT_LIM(1:8,7)=200.,500.,1000.,3000.,5000.,10000.,20000.,40000.,
   CONT_LIM(1:8,8)=70.,150.,300.,600.,1000.,1500.,2500.,5000.,
   CONT_LIM(1:9,3)=0.1,0.2,0.3,0.5,1.0,2.0,5.0,10.0,20.0,
   CONT_LIM(1:9,4)=0.1,0.2,0.5,1.0,2.0,5.0,10.0,15.0,20.0,
   CONT_LIM(1:9,5)=0.1,0.2,0.5,1.0,2.0,5.0,10.0,20.0,35.0,
   CONT_PARAM=9,
   INI_HOURS=24*-1,
   LDIFF=T,
   LFCVER=T,
   LPLOT_FREQ=F,
   LPLOT_SCAT=T,
   LPLOT_SEASONAL=F,
   LPLOT_STAT=F,
   LPLOT_VERT=F,
   LPOLY=T,
   LPREP_XML=F,
   LPRINT_SELECTION=T,
   LSCAT_YAVE=F,
   LSIGN_TEST=F,
   LSIGN_TEST_JOINT=F,
   LSTAT_GEN=F,
   LTIMESERIE_STAT=F,
   LVERIFY=T,
   PLOT_BIAS_MAP=F,
   PLOT_MABE_MAP=F,
   PLOT_RMSE_MAP=F,
   PLOT_STDV_MAP=F,
   POLYFILE='MetCoOp.poly',
   PRE_FCLA(:,10)=1.,2.,3.,4.,5.,6.,7.,
   PRE_FCLA(:,2)=0.5,1.5,2.5,3.5,4.5,5.5,6.5,7.5,
   PRE_FCLA(:,3)=1.,2.,3.,4.,5.,6.,7.,
   PRE_FCLA(:,4)=0.1,0.2,0.3,0.5,1.0,2.0,5.0,10.0,20.0,
   PRE_FCLA(:,5)=0.1,0.2,0.5,1.0,2.0,5.0,10.0,15.0,20.0,
   PRE_FCLA(:,6)=0.1,0.2,0.5,1.0,2.0,5.0,10.0,20.0,35.0,
   PRE_FCLA(:,7)=0.1,0.2,0.5,1.0,2.0,5.0,10.0,20.0,35.0,50.0,70.0,
   PRE_FCLA(:,8)=200.,500.,1000.,3000.,5000.,10000.,20000.,40000.,
   PRE_FCLA(:,9)=70.,150.,300.,600.,1000.,1500.,2500.,5000.,
   SHOW_OBS=F,
   STNLIST=0,
   STNLIST_PLOT=-1,
   TAG='METCOOP',
   USE_FCLEN=00,01,02,03,04,05,06,07,08,09,10,11,12,
 /
&NAMVER
   CBOX%ACTIVE=F,
   INI_HOURS=24*-1,
   LDIFF=T,
   LFCVER=T,
   LPLOT_FREQ=F,
   LPLOT_SCAT=F,
   LPLOT_SEASONAL=F,
   LPLOT_STAT=F,
   LPLOT_VERT=F,
   LPOLY=T,
   LPREP_XML=F,
   LPRINT_SELECTION=T,
   LSIGN_TEST=F,
   LSIGN_TEST_JOINT=F,
   LSTAT_GEN=F,
   LTIMESERIE_STAT=T,
   LVERIFY=T,
   PLOT_BIAS_MAP=F,
   PLOT_MABE_MAP=F,
   PLOT_RMSE_MAP=F,
   PLOT_STDV_MAP=F,
   POLYFILE='MetCoOp.poly',
   SHOW_BIAS=T,
   SHOW_MABE=T,
   SHOW_OBS=F,
   SHOW_RMSE=F,
   SHOW_STDV=F,
   STNLIST=0,
   STNLIST_PLOT=-1,
   TAG='METCOOP',
   TIMESERIE_WIND(1)=,
   TIMESERIE_WIND(10)=,
   TIMESERIE_WIND(2)=,
   TIMESERIE_WIND(3)=,
   TIMESERIE_WIND(4)=,
   TIMESERIE_WIND(5)=,
   TIMESERIE_WIND(6)=,
   TIMESERIE_WIND(7)=,
   TIMESERIE_WIND(8)=,
   TIMESERIE_WIND(9)=,
   USE_FCLEN=00,01,02,03,04,05,06,07,08,09,10,11,12,
 /
&NAMVER
   CBOX%ACTIVE=F,
   CONFINT=90.,
   INI_HOURS=24*-1,
   LDIFF=T,
   LFCVER=T,
   LPLOT_FREQ=F,
   LPLOT_SCAT=F,
   LPLOT_SEASONAL=F,
   LPLOT_STAT=T,
   LPLOT_VERT=F,
   LPOLY=T,
   LPREP_XML=F,
   LPRINT_SELECTION=T,
   LSIGN_TEST=T,
   LSIGN_TEST_JOINT=T,,
   LSTAT_GEN=T,
   LTIMESERIE_STAT=F,
   LVERIFY=T,
   PLOT_BIAS_MAP=F,
   PLOT_MABE_MAP=F,
   PLOT_RMSE_MAP=F,
   PLOT_STDV_MAP=F,
   POLYFILE='MetCoOp.poly',
   SHOW_BIAS=T,
   SHOW_MABE=T,
   SHOW_OBS=F,
   SHOW_RMSE=F,
   SHOW_STDV=F,
   SHOW_VAR=T,
   SIGN_TIME_DIFF=-1,
   STATNAME='TABLE_LL_00000000_METCOOP.html',
   STNLIST=0,
   STNLIST_PLOT=-1,
   TAG='METCOOP',
   USE_FCLEN=00,01,02,03,04,05,06,07,08,09,10,11,12,
 /
&NAMVER
   CBOX%ACTIVE=F,
   INI_HOURS=24*-1,
   LDIFF=T,
   LFCVER=F,
   LPLOT_FREQ=F,
   LPLOT_SCAT=F,
   LPLOT_SEASONAL=F,
   LPLOT_STAT=F,
   LPLOT_VERT=F,
   LPOLY=T,
   LPREP_XML=F,
   LPRINT_SELECTION=T,
   LSIGN_TEST=F,
   LSIGN_TEST_JOINT=F,
   LSTAT_GEN=T,
   LTIMESERIE_STAT=F,
   LVERIFY=T,
   MAP_BIAS_INTERVAL(1:7,1)=-1.,-0.3,-0.1,0.,0.1,0.3,1.,
   MAP_BIAS_INTERVAL(1:7,10)=-4.,-2.,-1.,0.,1.,2.,4.,
   MAP_BIAS_INTERVAL(1:7,2)=-6.,-3.,-1.,0.,1.,3.,6.,
   MAP_BIAS_INTERVAL(1:7,3)=-4.,-2.,-1.,0.,1.,2.,4.,
   MAP_BIAS_INTERVAL(1:7,4)=7*-1,
   MAP_BIAS_INTERVAL(1:7,5)=7*-1,
   MAP_BIAS_INTERVAL(1:7,6)=7*-1,
   MAP_BIAS_INTERVAL(1:7,7)=7*-1,
   MAP_BIAS_INTERVAL(1:7,8)=7*-1,
   MAP_BIAS_INTERVAL(1:7,9)=-1000.,-500.,-250.,0.,250.,500.,1000.,
   NTIMVER=24,
   PLOT_BIAS_MAP=T,
   PLOT_MABE_MAP=T,
   PLOT_RMSE_MAP=F,
   PLOT_STDV_MAP=F,
   POLYFILE='MetCoOp.poly',
   SHOW_OBS=F,
   SHOW_TIMES=00,12,
   STNLIST=0,
   STNLIST_PLOT=-1,
   TAG='METCOOP',
   USE_FCLEN=00,01,02,03,04,05,06,07,08,09,10,11,12,
 /
&NAMVER
   CBOX%ACTIVE=F,
   INI_HOURS=24*-1,
   LDIFF=T,
   LFCVER=T,
   LPLOT_FREQ=F,
   LPLOT_SCAT=F,
   LPLOT_SEASONAL=F,
   LPLOT_STAT=F,
   LPLOT_VERT=F,
   LPOLY=T,
   LPREP_XML=F,
   LPRINT_SELECTION=T,
   LSIGN_TEST=F,
   LSIGN_TEST_JOINT=F,
   LSTAT_GEN=F,
   LTIMESERIE_STAT=T,
   LVERIFY=T,
   PLOT_BIAS_MAP=F,
   PLOT_MABE_MAP=F,
   PLOT_RMSE_MAP=F,
   PLOT_STDV_MAP=F,
   POLYFILE='Norway.poly',
   SHOW_BIAS=T,
   SHOW_MABE=T,
   SHOW_OBS=F,
   SHOW_RMSE=F,
   SHOW_STDV=F,
   STNLIST=0,
   STNLIST_PLOT=-1,
   TAG='Norway',
   TIMESERIE_WIND(1)=,
   TIMESERIE_WIND(10)=,
   TIMESERIE_WIND(2)=,
   TIMESERIE_WIND(3)=,
   TIMESERIE_WIND(4)=,
   TIMESERIE_WIND(5)=,
   TIMESERIE_WIND(6)=,
   TIMESERIE_WIND(7)=,
   TIMESERIE_WIND(8)=,
   TIMESERIE_WIND(9)=,
   USE_FCLEN=00,01,02,03,04,05,06,07,08,09,10,11,12,
 /
&NAMVER
   CBOX%ACTIVE=F,
   CONFINT=90.,
   INI_HOURS=24*-1,
   LDIFF=T,
   LFCVER=T,
   LPLOT_FREQ=F,
   LPLOT_SCAT=F,
   LPLOT_SEASONAL=F,
   LPLOT_STAT=T,
   LPLOT_VERT=F,
   LPOLY=T,
   LPREP_XML=F,
   LPRINT_SELECTION=T,
   LSIGN_TEST=T,
   LSIGN_TEST_JOINT=T,,
   LSTAT_GEN=T,
   LTIMESERIE_STAT=F,
   LVERIFY=T,
   PLOT_BIAS_MAP=F,
   PLOT_MABE_MAP=F,
   PLOT_RMSE_MAP=F,
   PLOT_STDV_MAP=F,
   POLYFILE='Norway.poly',
   SHOW_BIAS=T,
   SHOW_MABE=T,
   SHOW_OBS=F,
   SHOW_RMSE=F,
   SHOW_STDV=F,
   SHOW_VAR=T,
   SIGN_TIME_DIFF=-1,
   STATNAME='TABLE_LL_00000000_Norway.html',
   STNLIST=0,
   STNLIST_PLOT=-1,
   TAG='Norway',
   USE_FCLEN=00,01,02,03,04,05,06,07,08,09,10,11,12,
 /
&NAMVER
   CBOX%ACTIVE=F,
   INI_HOURS=24*-1,
   LDIFF=T,
   LFCVER=F,
   LPLOT_FREQ=F,
   LPLOT_SCAT=F,
   LPLOT_SEASONAL=F,
   LPLOT_STAT=F,
   LPLOT_VERT=F,
   LPOLY=T,
   LPREP_XML=F,
   LPRINT_SELECTION=T,
   LSIGN_TEST=F,
   LSIGN_TEST_JOINT=F,
   LSTAT_GEN=T,
   LTIMESERIE_STAT=F,
   LVERIFY=T,
   MAP_BIAS_INTERVAL(1:7,1)=-1.,-0.3,-0.1,0.,0.1,0.3,1.,
   MAP_BIAS_INTERVAL(1:7,10)=-4.,-2.,-1.,0.,1.,2.,4.,
   MAP_BIAS_INTERVAL(1:7,2)=-6.,-3.,-1.,0.,1.,3.,6.,
   MAP_BIAS_INTERVAL(1:7,3)=-4.,-2.,-1.,0.,1.,2.,4.,
   MAP_BIAS_INTERVAL(1:7,4)=7*-1,
   MAP_BIAS_INTERVAL(1:7,5)=7*-1,
   MAP_BIAS_INTERVAL(1:7,6)=7*-1,
   MAP_BIAS_INTERVAL(1:7,7)=7*-1,
   MAP_BIAS_INTERVAL(1:7,8)=7*-1,
   MAP_BIAS_INTERVAL(1:7,9)=-1000.,-500.,-250.,0.,250.,500.,1000.,
   NTIMVER=24,
   PLOT_BIAS_MAP=T,
   PLOT_MABE_MAP=T,
   PLOT_RMSE_MAP=F,
   PLOT_STDV_MAP=F,
   POLYFILE='Norway.poly',
   SHOW_OBS=F,
   SHOW_TIMES=00,12,
   STNLIST=0,
   STNLIST_PLOT=-1,
   TAG='Norway',
   USE_FCLEN=00,01,02,03,04,05,06,07,08,09,10,11,12,
 /
&NAMVER
   CBOX%ACTIVE=F,
   INI_HOURS=24*-1,
   LDIFF=T,
   LFCVER=F,
   LPLOT_FREQ=F,
   LPLOT_SCAT=F,
   LPLOT_SEASONAL=F,
   LPLOT_STAT=T,
   LPLOT_VERT=F,
   LPOLY=T,
   LPREP_XML=F,
   LPRINT_SELECTION=T,
   LSIGN_TEST=F,
   LSIGN_TEST_JOINT=F,
   LSTAT_GEN=T,
   LTIMESERIE_STAT=F,
   LVERIFY=T,
   NTIMVER=24,
   PLOT_BIAS_MAP=F,
   PLOT_MABE_MAP=F,
   PLOT_RMSE_MAP=F,
   PLOT_STDV_MAP=F,
   POLYFILE='Norway.poly',
   SHOW_OBS=T,
   SHOW_VAR=F,
   STATNAME='TABLE_HH_00000000_Norway.html',
   STNLIST=0,
   STNLIST_PLOT=-1,
   TAG='Norway',
   USE_FCLEN=00,01,02,03,04,05,06,07,08,09,10,11,12,
 /
&NAMVER
   CBOX%ACTIVE=F,
   CONT_CLASS(1)=8,
   CONT_CLASS(2)=7,
   CONT_CLASS(3)=9,
   CONT_CLASS(4)=9,
   CONT_CLASS(5)=9,
   CONT_CLASS(6)=11,
   CONT_CLASS(7)=8,
   CONT_CLASS(8)=8,
   CONT_CLASS(9)=7,
   CONT_IND(1)=2,
   CONT_IND(2)=3,
   CONT_IND(3)=4,
   CONT_IND(4)=5,
   CONT_IND(5)=6,
   CONT_IND(6)=7,
   CONT_IND(7)=8,
   CONT_IND(8)=9,
   CONT_IND(9)=10,
   CONT_LIM(1:11,6)=0.1,0.2,0.5,1.0,2.0,5.0,10.0,20.0,35.0,50.0,70.0,
   CONT_LIM(1:7,2)=1.,2.,3.,4.,5.,6.,7.,
   CONT_LIM(1:7,9)=1.,2.,3.,4.,5.,6.,7.,
   CONT_LIM(1:8,1)=0.5,1.5,2.5,3.5,4.5,5.5,6.5,7.5,
   CONT_LIM(1:8,7)=200.,500.,1000.,3000.,5000.,10000.,20000.,40000.,
   CONT_LIM(1:8,8)=70.,150.,300.,600.,1000.,1500.,2500.,5000.,
   CONT_LIM(1:9,3)=0.1,0.2,0.3,0.5,1.0,2.0,5.0,10.0,20.0,
   CONT_LIM(1:9,4)=0.1,0.2,0.5,1.0,2.0,5.0,10.0,15.0,20.0,
   CONT_LIM(1:9,5)=0.1,0.2,0.5,1.0,2.0,5.0,10.0,20.0,35.0,
   CONT_PARAM=9,
   INI_HOURS=24*-1,
   LDIFF=T,
   LFCVER=T,
   LPLOT_FREQ=F,
   LPLOT_SCAT=T,
   LPLOT_SEASONAL=F,
   LPLOT_STAT=F,
   LPLOT_VERT=F,
   LPOLY=T,
   LPREP_XML=F,
   LPRINT_SELECTION=T,
   LSCAT_YAVE=F,
   LSIGN_TEST=F,
   LSIGN_TEST_JOINT=F,
   LSTAT_GEN=F,
   LTIMESERIE_STAT=F,
   LVERIFY=T,
   PLOT_BIAS_MAP=F,
   PLOT_MABE_MAP=F,
   PLOT_RMSE_MAP=F,
   PLOT_STDV_MAP=F,
   POLYFILE='Norway.poly',
   PRE_FCLA(:,10)=1.,2.,3.,4.,5.,6.,7.,
   PRE_FCLA(:,2)=0.5,1.5,2.5,3.5,4.5,5.5,6.5,7.5,
   PRE_FCLA(:,3)=1.,2.,3.,4.,5.,6.,7.,
   PRE_FCLA(:,4)=0.1,0.2,0.3,0.5,1.0,2.0,5.0,10.0,20.0,
   PRE_FCLA(:,5)=0.1,0.2,0.5,1.0,2.0,5.0,10.0,15.0,20.0,
   PRE_FCLA(:,6)=0.1,0.2,0.5,1.0,2.0,5.0,10.0,20.0,35.0,
   PRE_FCLA(:,7)=0.1,0.2,0.5,1.0,2.0,5.0,10.0,20.0,35.0,50.0,70.0,
   PRE_FCLA(:,8)=200.,500.,1000.,3000.,5000.,10000.,20000.,40000.,
   PRE_FCLA(:,9)=70.,150.,300.,600.,1000.,1500.,2500.,5000.,
   SHOW_OBS=F,
   STNLIST=0,
   STNLIST_PLOT=-1,
   TAG='Norway',
   USE_FCLEN=00,01,02,03,04,05,06,07,08,09,10,11,12,
 /
&NAMVER
   CBOX%ACTIVE=F,
   CONT_CLASS(1)=8,
   CONT_CLASS(2)=7,
   CONT_CLASS(3)=9,
   CONT_CLASS(4)=9,
   CONT_CLASS(5)=9,
   CONT_CLASS(6)=11,
   CONT_CLASS(7)=8,
   CONT_CLASS(8)=8,
   CONT_CLASS(9)=7,
   CONT_IND(1)=2,
   CONT_IND(2)=3,
   CONT_IND(3)=4,
   CONT_IND(4)=5,
   CONT_IND(5)=6,
   CONT_IND(6)=7,
   CONT_IND(7)=8,
   CONT_IND(8)=9,
   CONT_IND(9)=10,
   CONT_LIM(1:11,6)=0.1,0.2,0.5,1.0,2.0,5.0,10.0,20.0,35.0,50.0,70.0,
   CONT_LIM(1:7,2)=1.,2.,3.,4.,5.,6.,7.,
   CONT_LIM(1:7,9)=1.,2.,3.,4.,5.,6.,7.,
   CONT_LIM(1:8,1)=0.5,1.5,2.5,3.5,4.5,5.5,6.5,7.5,
   CONT_LIM(1:8,7)=200.,500.,1000.,3000.,5000.,10000.,20000.,40000.,
   CONT_LIM(1:8,8)=70.,150.,300.,600.,1000.,1500.,2500.,5000.,
   CONT_LIM(1:9,3)=0.1,0.2,0.3,0.5,1.0,2.0,5.0,10.0,20.0,
   CONT_LIM(1:9,4)=0.1,0.2,0.5,1.0,2.0,5.0,10.0,15.0,20.0,
   CONT_LIM(1:9,5)=0.1,0.2,0.5,1.0,2.0,5.0,10.0,20.0,35.0,
   CONT_PARAM=9,
   INI_HOURS=24*-1,
   LDIFF=T,
   LFCVER=T,
   LPLOT_FREQ=F,
   LPLOT_SCAT=T,
   LPLOT_SEASONAL=F,
   LPLOT_STAT=F,
   LPLOT_VERT=F,
   LPOLY=T,
   LPREP_XML=F,
   LPRINT_SELECTION=T,
   LSCAT_YAVE=F,
   LSIGN_TEST=F,
   LSIGN_TEST_JOINT=F,
   LSTAT_GEN=F,
   LTIMESERIE_STAT=F,
   LVERIFY=T,
   PLOT_BIAS_MAP=F,
   PLOT_MABE_MAP=F,
   PLOT_RMSE_MAP=F,
   PLOT_STDV_MAP=F,
   POLYFILE='Sweden.poly',
   PRE_FCLA(:,10)=1.,2.,3.,4.,5.,6.,7.,
   PRE_FCLA(:,2)=0.5,1.5,2.5,3.5,4.5,5.5,6.5,7.5,
   PRE_FCLA(:,3)=1.,2.,3.,4.,5.,6.,7.,
   PRE_FCLA(:,4)=0.1,0.2,0.3,0.5,1.0,2.0,5.0,10.0,20.0,
   PRE_FCLA(:,5)=0.1,0.2,0.5,1.0,2.0,5.0,10.0,15.0,20.0,
   PRE_FCLA(:,6)=0.1,0.2,0.5,1.0,2.0,5.0,10.0,20.0,35.0,
   PRE_FCLA(:,7)=0.1,0.2,0.5,1.0,2.0,5.0,10.0,20.0,35.0,50.0,70.0,
   PRE_FCLA(:,8)=200.,500.,1000.,3000.,5000.,10000.,20000.,40000.,
   PRE_FCLA(:,9)=70.,150.,300.,600.,1000.,1500.,2500.,5000.,
   SHOW_OBS=F,
   STNLIST=0,
   STNLIST_PLOT=-1,
   TAG='Sweden',
   USE_FCLEN=00,01,02,03,04,05,06,07,08,09,10,11,12,
 /
&NAMVER
   CBOX%ACTIVE=F,
   INI_HOURS=24*-1,
   LDIFF=T,
   LFCVER=F,
   LPLOT_FREQ=F,
   LPLOT_SCAT=F,
   LPLOT_SEASONAL=F,
   LPLOT_STAT=T,
   LPLOT_VERT=F,
   LPOLY=T,
   LPREP_XML=F,
   LPRINT_SELECTION=T,
   LSIGN_TEST=F,
   LSIGN_TEST_JOINT=F,
   LSTAT_GEN=T,
   LTIMESERIE_STAT=F,
   LVERIFY=T,
   NTIMVER=24,
   PLOT_BIAS_MAP=F,
   PLOT_MABE_MAP=F,
   PLOT_RMSE_MAP=F,
   PLOT_STDV_MAP=F,
   POLYFILE='Sweden.poly',
   SHOW_OBS=T,
   SHOW_VAR=F,
   STATNAME='TABLE_HH_00000000_Sweden.html',
   STNLIST=0,
   STNLIST_PLOT=-1,
   TAG='Sweden',
   USE_FCLEN=00,01,02,03,04,05,06,07,08,09,10,11,12,
 /
&NAMVER
   CBOX%ACTIVE=F,
   INI_HOURS=24*-1,
   LDIFF=T,
   LFCVER=T,
   LPLOT_FREQ=F,
   LPLOT_SCAT=F,
   LPLOT_SEASONAL=F,
   LPLOT_STAT=F,
   LPLOT_VERT=F,
   LPOLY=T,
   LPREP_XML=F,
   LPRINT_SELECTION=T,
   LSIGN_TEST=F,
   LSIGN_TEST_JOINT=F,
   LSTAT_GEN=F,
   LTIMESERIE_STAT=T,
   LVERIFY=T,
   PLOT_BIAS_MAP=F,
   PLOT_MABE_MAP=F,
   PLOT_RMSE_MAP=F,
   PLOT_STDV_MAP=F,
   POLYFILE='Sweden.poly',
   SHOW_BIAS=T,
   SHOW_MABE=T,
   SHOW_OBS=F,
   SHOW_RMSE=F,
   SHOW_STDV=F,
   STNLIST=0,
   STNLIST_PLOT=-1,
   TAG='Sweden',
   TIMESERIE_WIND(1)=,
   TIMESERIE_WIND(10)=,
   TIMESERIE_WIND(2)=,
   TIMESERIE_WIND(3)=,
   TIMESERIE_WIND(4)=,
   TIMESERIE_WIND(5)=,
   TIMESERIE_WIND(6)=,
   TIMESERIE_WIND(7)=,
   TIMESERIE_WIND(8)=,
   TIMESERIE_WIND(9)=,
   USE_FCLEN=00,01,02,03,04,05,06,07,08,09,10,11,12,
 /
&NAMVER
   CBOX%ACTIVE=F,
   INI_HOURS=24*-1,
   LDIFF=T,
   LFCVER=F,
   LPLOT_FREQ=F,
   LPLOT_SCAT=F,
   LPLOT_SEASONAL=F,
   LPLOT_STAT=F,
   LPLOT_VERT=F,
   LPOLY=T,
   LPREP_XML=F,
   LPRINT_SELECTION=T,
   LSIGN_TEST=F,
   LSIGN_TEST_JOINT=F,
   LSTAT_GEN=T,
   LTIMESERIE_STAT=F,
   LVERIFY=T,
   MAP_BIAS_INTERVAL(1:7,1)=-1.,-0.3,-0.1,0.,0.1,0.3,1.,
   MAP_BIAS_INTERVAL(1:7,10)=-4.,-2.,-1.,0.,1.,2.,4.,
   MAP_BIAS_INTERVAL(1:7,2)=-6.,-3.,-1.,0.,1.,3.,6.,
   MAP_BIAS_INTERVAL(1:7,3)=-4.,-2.,-1.,0.,1.,2.,4.,
   MAP_BIAS_INTERVAL(1:7,4)=7*-1,
   MAP_BIAS_INTERVAL(1:7,5)=7*-1,
   MAP_BIAS_INTERVAL(1:7,6)=7*-1,
   MAP_BIAS_INTERVAL(1:7,7)=7*-1,
   MAP_BIAS_INTERVAL(1:7,8)=7*-1,
   MAP_BIAS_INTERVAL(1:7,9)=-1000.,-500.,-250.,0.,250.,500.,1000.,
   NTIMVER=24,
   PLOT_BIAS_MAP=T,
   PLOT_MABE_MAP=T,
   PLOT_RMSE_MAP=F,
   PLOT_STDV_MAP=F,
   POLYFILE='Sweden.poly',
   SHOW_OBS=F,
   SHOW_TIMES=00,12,
   STNLIST=0,
   STNLIST_PLOT=-1,
   TAG='Sweden',
   USE_FCLEN=00,01,02,03,04,05,06,07,08,09,10,11,12,
 /
&NAMVER
   CBOX%ACTIVE=F,
   CONFINT=90.,
   INI_HOURS=24*-1,
   LDIFF=T,
   LFCVER=T,
   LPLOT_FREQ=F,
   LPLOT_SCAT=F,
   LPLOT_SEASONAL=F,
   LPLOT_STAT=T,
   LPLOT_VERT=F,
   LPOLY=T,
   LPREP_XML=F,
   LPRINT_SELECTION=T,
   LSIGN_TEST=T,
   LSIGN_TEST_JOINT=T,,
   LSTAT_GEN=T,
   LTIMESERIE_STAT=F,
   LVERIFY=T,
   PLOT_BIAS_MAP=F,
   PLOT_MABE_MAP=F,
   PLOT_RMSE_MAP=F,
   PLOT_STDV_MAP=F,
   POLYFILE='Sweden.poly',
   SHOW_BIAS=T,
   SHOW_MABE=T,
   SHOW_OBS=F,
   SHOW_RMSE=F,
   SHOW_STDV=F,
   SHOW_VAR=T,
   SIGN_TIME_DIFF=-1,
   STATNAME='TABLE_LL_00000000_Sweden.html',
   STNLIST=0,
   STNLIST_PLOT=-1,
   TAG='Sweden',
   USE_FCLEN=00,01,02,03,04,05,06,07,08,09,10,11,12,
 /
&NAMVER
   CBOX%ACTIVE=F,
   INI_HOURS=24*-1,
   LDIFF=T,
   LFCVER=T,
   LPLOT_FREQ=F,
   LPLOT_SCAT=F,
   LPLOT_SEASONAL=F,
   LPLOT_STAT=F,
   LPLOT_VERT=F,
   LPOLY=T,
   LPREP_XML=F,
   LPRINT_SELECTION=T,
   LSIGN_TEST=F,
   LSIGN_TEST_JOINT=F,
   LSTAT_GEN=F,
   LTIMESERIE_STAT=T,
   LVERIFY=T,
   PLOT_BIAS_MAP=F,
   PLOT_MABE_MAP=F,
   PLOT_RMSE_MAP=F,
   PLOT_STDV_MAP=F,
   POLYFILE='Finland.poly',
   SHOW_BIAS=T,
   SHOW_MABE=T,
   SHOW_OBS=F,
   SHOW_RMSE=F,
   SHOW_STDV=F,
   STNLIST=0,
   STNLIST_PLOT=-1,
   TAG='Finland',
   TIMESERIE_WIND(1)=,
   TIMESERIE_WIND(10)=,
   TIMESERIE_WIND(2)=,
   TIMESERIE_WIND(3)=,
   TIMESERIE_WIND(4)=,
   TIMESERIE_WIND(5)=,
   TIMESERIE_WIND(6)=,
   TIMESERIE_WIND(7)=,
   TIMESERIE_WIND(8)=,
   TIMESERIE_WIND(9)=,
   USE_FCLEN=00,01,02,03,04,05,06,07,08,09,10,11,12,
 /
&NAMVER
   CBOX%ACTIVE=F,
   CONFINT=90.,
   INI_HOURS=24*-1,
   LDIFF=T,
   LFCVER=T,
   LPLOT_FREQ=F,
   LPLOT_SCAT=F,
   LPLOT_SEASONAL=F,
   LPLOT_STAT=T,
   LPLOT_VERT=F,
   LPOLY=T,
   LPREP_XML=F,
   LPRINT_SELECTION=T,
   LSIGN_TEST=T,
   LSIGN_TEST_JOINT=T,,
   LSTAT_GEN=T,
   LTIMESERIE_STAT=F,
   LVERIFY=T,
   PLOT_BIAS_MAP=F,
   PLOT_MABE_MAP=F,
   PLOT_RMSE_MAP=F,
   PLOT_STDV_MAP=F,
   POLYFILE='Finland.poly',
   SHOW_BIAS=T,
   SHOW_MABE=T,
   SHOW_OBS=F,
   SHOW_RMSE=F,
   SHOW_STDV=F,
   SHOW_VAR=T,
   SIGN_TIME_DIFF=-1,
   STATNAME='TABLE_LL_00000000_Finland.html',
   STNLIST=0,
   STNLIST_PLOT=-1,
   TAG='Finland',
   USE_FCLEN=00,01,02,03,04,05,06,07,08,09,10,11,12,
 /
&NAMVER
   CBOX%ACTIVE=F,
   INI_HOURS=24*-1,
   LDIFF=T,
   LFCVER=F,
   LPLOT_FREQ=F,
   LPLOT_SCAT=F,
   LPLOT_SEASONAL=F,
   LPLOT_STAT=F,
   LPLOT_VERT=F,
   LPOLY=T,
   LPREP_XML=F,
   LPRINT_SELECTION=T,
   LSIGN_TEST=F,
   LSIGN_TEST_JOINT=F,
   LSTAT_GEN=T,
   LTIMESERIE_STAT=F,
   LVERIFY=T,
   MAP_BIAS_INTERVAL(1:7,1)=-1.,-0.3,-0.1,0.,0.1,0.3,1.,
   MAP_BIAS_INTERVAL(1:7,10)=-4.,-2.,-1.,0.,1.,2.,4.,
   MAP_BIAS_INTERVAL(1:7,2)=-6.,-3.,-1.,0.,1.,3.,6.,
   MAP_BIAS_INTERVAL(1:7,3)=-4.,-2.,-1.,0.,1.,2.,4.,
   MAP_BIAS_INTERVAL(1:7,4)=7*-1,
   MAP_BIAS_INTERVAL(1:7,5)=7*-1,
   MAP_BIAS_INTERVAL(1:7,6)=7*-1,
   MAP_BIAS_INTERVAL(1:7,7)=7*-1,
   MAP_BIAS_INTERVAL(1:7,8)=7*-1,
   MAP_BIAS_INTERVAL(1:7,9)=-1000.,-500.,-250.,0.,250.,500.,1000.,
   NTIMVER=24,
   PLOT_BIAS_MAP=T,
   PLOT_MABE_MAP=T,
   PLOT_RMSE_MAP=F,
   PLOT_STDV_MAP=F,
   POLYFILE='Finland.poly',
   SHOW_OBS=F,
   SHOW_TIMES=00,12,
   STNLIST=0,
   STNLIST_PLOT=-1,
   TAG='Finland',
   USE_FCLEN=00,01,02,03,04,05,06,07,08,09,10,11,12,
 /
&NAMVER
   CBOX%ACTIVE=F,
   INI_HOURS=24*-1,
   LDIFF=T,
   LFCVER=F,
   LPLOT_FREQ=F,
   LPLOT_SCAT=F,
   LPLOT_SEASONAL=F,
   LPLOT_STAT=T,
   LPLOT_VERT=F,
   LPOLY=T,
   LPREP_XML=F,
   LPRINT_SELECTION=T,
   LSIGN_TEST=F,
   LSIGN_TEST_JOINT=F,
   LSTAT_GEN=T,
   LTIMESERIE_STAT=F,
   LVERIFY=T,
   NTIMVER=24,
   PLOT_BIAS_MAP=F,
   PLOT_MABE_MAP=F,
   PLOT_RMSE_MAP=F,
   PLOT_STDV_MAP=F,
   POLYFILE='Finland.poly',
   SHOW_OBS=T,
   SHOW_VAR=F,
   STATNAME='TABLE_HH_00000000_Finland.html',
   STNLIST=0,
   STNLIST_PLOT=-1,
   TAG='Finland',
   USE_FCLEN=00,01,02,03,04,05,06,07,08,09,10,11,12,
 /
&NAMVER
   CBOX%ACTIVE=F,
   CONT_CLASS(1)=8,
   CONT_CLASS(2)=7,
   CONT_CLASS(3)=9,
   CONT_CLASS(4)=9,
   CONT_CLASS(5)=9,
   CONT_CLASS(6)=11,
   CONT_CLASS(7)=8,
   CONT_CLASS(8)=8,
   CONT_CLASS(9)=7,
   CONT_IND(1)=2,
   CONT_IND(2)=3,
   CONT_IND(3)=4,
   CONT_IND(4)=5,
   CONT_IND(5)=6,
   CONT_IND(6)=7,
   CONT_IND(7)=8,
   CONT_IND(8)=9,
   CONT_IND(9)=10,
   CONT_LIM(1:11,6)=0.1,0.2,0.5,1.0,2.0,5.0,10.0,20.0,35.0,50.0,70.0,
   CONT_LIM(1:7,2)=1.,2.,3.,4.,5.,6.,7.,
   CONT_LIM(1:7,9)=1.,2.,3.,4.,5.,6.,7.,
   CONT_LIM(1:8,1)=0.5,1.5,2.5,3.5,4.5,5.5,6.5,7.5,
   CONT_LIM(1:8,7)=200.,500.,1000.,3000.,5000.,10000.,20000.,40000.,
   CONT_LIM(1:8,8)=70.,150.,300.,600.,1000.,1500.,2500.,5000.,
   CONT_LIM(1:9,3)=0.1,0.2,0.3,0.5,1.0,2.0,5.0,10.0,20.0,
   CONT_LIM(1:9,4)=0.1,0.2,0.5,1.0,2.0,5.0,10.0,15.0,20.0,
   CONT_LIM(1:9,5)=0.1,0.2,0.5,1.0,2.0,5.0,10.0,20.0,35.0,
   CONT_PARAM=9,
   INI_HOURS=24*-1,
   LDIFF=T,
   LFCVER=T,
   LPLOT_FREQ=F,
   LPLOT_SCAT=T,
   LPLOT_SEASONAL=F,
   LPLOT_STAT=F,
   LPLOT_VERT=F,
   LPOLY=T,
   LPREP_XML=F,
   LPRINT_SELECTION=T,
   LSCAT_YAVE=F,
   LSIGN_TEST=F,
   LSIGN_TEST_JOINT=F,
   LSTAT_GEN=F,
   LTIMESERIE_STAT=F,
   LVERIFY=T,
   PLOT_BIAS_MAP=F,
   PLOT_MABE_MAP=F,
   PLOT_RMSE_MAP=F,
   PLOT_STDV_MAP=F,
   POLYFILE='Finland.poly',
   PRE_FCLA(:,10)=1.,2.,3.,4.,5.,6.,7.,
   PRE_FCLA(:,2)=0.5,1.5,2.5,3.5,4.5,5.5,6.5,7.5,
   PRE_FCLA(:,3)=1.,2.,3.,4.,5.,6.,7.,
   PRE_FCLA(:,4)=0.1,0.2,0.3,0.5,1.0,2.0,5.0,10.0,20.0,
   PRE_FCLA(:,5)=0.1,0.2,0.5,1.0,2.0,5.0,10.0,15.0,20.0,
   PRE_FCLA(:,6)=0.1,0.2,0.5,1.0,2.0,5.0,10.0,20.0,35.0,
   PRE_FCLA(:,7)=0.1,0.2,0.5,1.0,2.0,5.0,10.0,20.0,35.0,50.0,70.0,
   PRE_FCLA(:,8)=200.,500.,1000.,3000.,5000.,10000.,20000.,40000.,
   PRE_FCLA(:,9)=70.,150.,300.,600.,1000.,1500.,2500.,5000.,
   SHOW_OBS=F,
   STNLIST=0,
   STNLIST_PLOT=-1,
   TAG='Finland',
   USE_FCLEN=00,01,02,03,04,05,06,07,08,09,10,11,12,
 /
&NAMVER
   CBOX%ACTIVE=F,
   INI_HOURS=24*-1,
   LDIFF=T,
   LFCVER=F,
   LPLOT_FREQ=F,
   LPLOT_SCAT=F,
   LPLOT_SEASONAL=F,
   LPLOT_STAT=F,
   LPLOT_VERT=F,
   LPOLY=T,
   LPREP_XML=F,
   LPRINT_SELECTION=T,
   LSIGN_TEST=F,
   LSIGN_TEST_JOINT=F,
   LSTAT_GEN=T,
   LTIMESERIE_STAT=F,
   LVERIFY=T,
   MAP_BIAS_INTERVAL(1:7,1)=-1.,-0.3,-0.1,0.,0.1,0.3,1.,
   MAP_BIAS_INTERVAL(1:7,10)=-4.,-2.,-1.,0.,1.,2.,4.,
   MAP_BIAS_INTERVAL(1:7,2)=-6.,-3.,-1.,0.,1.,3.,6.,
   MAP_BIAS_INTERVAL(1:7,3)=-4.,-2.,-1.,0.,1.,2.,4.,
   MAP_BIAS_INTERVAL(1:7,4)=7*-1,
   MAP_BIAS_INTERVAL(1:7,5)=7*-1,
   MAP_BIAS_INTERVAL(1:7,6)=7*-1,
   MAP_BIAS_INTERVAL(1:7,7)=7*-1,
   MAP_BIAS_INTERVAL(1:7,8)=7*-1,
   MAP_BIAS_INTERVAL(1:7,9)=-1000.,-500.,-250.,0.,250.,500.,1000.,
   NTIMVER=24,
   PLOT_BIAS_MAP=T,
   PLOT_MABE_MAP=T,
   PLOT_RMSE_MAP=F,
   PLOT_STDV_MAP=F,
   POLYFILE='Estonia.poly',
   SHOW_OBS=F,
   SHOW_TIMES=00,12,
   STNLIST=0,
   STNLIST_PLOT=-1,
   TAG='Estonia',
   USE_FCLEN=00,01,02,03,04,05,06,07,08,09,10,11,12,
 /
&NAMVER
   CBOX%ACTIVE=F,
   CONFINT=90.,
   INI_HOURS=24*-1,
   LDIFF=T,
   LFCVER=T,
   LPLOT_FREQ=F,
   LPLOT_SCAT=F,
   LPLOT_SEASONAL=F,
   LPLOT_STAT=T,
   LPLOT_VERT=F,
   LPOLY=T,
   LPREP_XML=F,
   LPRINT_SELECTION=T,
   LSIGN_TEST=T,
   LSIGN_TEST_JOINT=T,,
   LSTAT_GEN=T,
   LTIMESERIE_STAT=F,
   LVERIFY=T,
   PLOT_BIAS_MAP=F,
   PLOT_MABE_MAP=F,
   PLOT_RMSE_MAP=F,
   PLOT_STDV_MAP=F,
   POLYFILE='Estonia.poly',
   SHOW_BIAS=T,
   SHOW_MABE=T,
   SHOW_OBS=F,
   SHOW_RMSE=F,
   SHOW_STDV=F,
   SHOW_VAR=T,
   SIGN_TIME_DIFF=-1,
   STATNAME='TABLE_LL_00000000_Estonia.html',
   STNLIST=0,
   STNLIST_PLOT=-1,
   TAG='Estonia',
   USE_FCLEN=00,01,02,03,04,05,06,07,08,09,10,11,12,
 /
&NAMVER
   CBOX%ACTIVE=F,
   INI_HOURS=24*-1,
   LDIFF=T,
   LFCVER=T,
   LPLOT_FREQ=F,
   LPLOT_SCAT=F,
   LPLOT_SEASONAL=F,
   LPLOT_STAT=F,
   LPLOT_VERT=F,
   LPOLY=T,
   LPREP_XML=F,
   LPRINT_SELECTION=T,
   LSIGN_TEST=F,